functions/OneTimeScripts/validationAgainstOpenDSS_MATLAB/ieee123_1ph_created/components/PVconfigs/PV30.dss
! 30% of the Load Buses have PVs
New PVSystem.9 phases=1 bus1=9 kV=2.4 kVA=16 irradiance=1 Pmpp=13.33 kVAr=0 %cutin=0.1 %cutout=0.1
New PVSystem.28 phases=1 bus1=28 kV=2.4 kVA=16 irradiance=1 Pmpp=13.33 kVAr=0 %cutin=0.1 %cutout=0.1
New PVSystem.48 phases=1 bus1=48 kV=2.4 kVA=84 irradiance=1 Pmpp=70 kVAr=0 %cutin=0.1 %cutout=0.1
New PVSystem.58 phases=1 bus1=58 kV=2.4 kVA=8 irradiance=1 Pmpp=6.667 kVAr=0 %cutin=0.1 %cutout=0.1
New PVSystem.65 phases=1 bus1=65 kV=2.4 kVA=56 irradiance=1 Pmpp=46.667 kVAr=0 %cutin=0.1 %cutout=0.1
New PVSystem.76 phases=1 bus1=76 kV=2.4 kVA=98 irradiance=1 Pmpp=81.666 kVAr=0 %cutin=0.1 %cutout=0.1
New PVSystem.87 phases=1 bus1=87 kV=2.4 kVA=16 irradiance=1 Pmpp=13.333 kVAr=0 %cutin=0.1 %cutout=0.1
New PVSystem.100 phases=1 bus1=100 kV=2.4 kVA=16 irradiance=1 Pmpp=13.333 kVAr=0 %cutin=0.1 %cutout=0.1
New PVSystem.6 phases=1 bus1=6 kV=2.4 kVA=16 irradiance=1 Pmpp=13.33 kVAr=0 %cutin=0.1 %cutout=0.1
New PVSystem.19 phases=1 bus1=19 kV=2.4 kVA=16 irradiance=1 Pmpp=13.33 kVAr=0 %cutin=0.1 %cutout=0.1
New PVSystem.16 phases=1 bus1=16 kV=2.4 kVA=16 irradiance=1 Pmpp=13.33 kVAr=0 %cutin=0.1 %cutout=0.1
New PVSystem.30 phases=1 bus1=30 kV=2.4 kVA=16 irradiance=1 Pmpp=13.33 kVAr=0 %cutin=0.1 %cutout=0.1
New PVSystem.35 phases=1 bus1=35 kV=2.4 kVA=16 irradiance=1 Pmpp=13.33 kVAr=0 %cutin=0.1 %cutout=0.1
New PVSystem.43 phases=1 bus1=43 kV=2.4 kVA=16 irradiance=1 Pmpp=13.33 kVAr=0 %cutin=0.1 %cutout=0.1
New PVSystem.51 phases=1 bus1=51 kV=2.4 kVA=8 irradiance=1 Pmpp=6.667 kVAr=0 %cutin=0.1 %cutout=0.1
New PVSystem.55 phases=1 bus1=55 kV=2.4 kVA=8 irradiance=1 Pmpp=6.667 kVAr=0 %cutin=0.1 %cutout=0.1
New PVSystem.62 phases=1 bus1=62 kV=2.4 kVA=16 irradiance=1 Pmpp=13.33 kVAr=0 %cutin=0.1 %cutout=0.1
New PVSystem.75 phases=1 bus1=75 kV=2.4 kVA=16 irradiance=1 Pmpp=13.33 kVAr=0 %cutin=0.1 %cutout=0.1
New PVSystem.84 phases=1 bus1=84 kV=2.4 kVA=8 irradiance=1 Pmpp=6.667 kVAr=0 %cutin=0.1 %cutout=0.1
New PVSystem.96 phases=1 bus1=96 kV=2.4 kVA=8 irradiance=1 Pmpp=6.667 kVAr=0 %cutin=0.1 %cutout=0.1
New PVSystem.99 phases=1 bus1=99 kV=2.4 kVA=16 irradiance=1 Pmpp=13.33 kVAr=0 %cutin=0.1 %cutout=0.1
New PVSystem.104 phases=1 bus1=104 kV=2.4 kVA=16 irradiance=1 Pmpp=13.33 kVAr=0 %cutin=0.1 %cutout=0.1
New PVSystem.107 phases=1 bus1=107 kV=2.4 kVA=16 irradiance=1 Pmpp=13.33 kVAr=0 %cutin=0.1 %cutout=0.1
New PVSystem.111 phases=1 bus1=111 kV=2.4 kVA=8 irradiance=1 Pmpp=6.667 kVAr=0 %cutin=0.1 %cutout=0.1
New PVSystem.114 phases=1 bus1=114 kV=2.4 kVA=8 irradiance=1 Pmpp=6.667 kVAr=0 %cutin=0.1 %cutout=0.1

